|Variable name: |k_3swan69|
|3 x 3
|431.000000	912.000000	0.030000	|320.000000	123.000000	1.000000	
|11.000000	0.120000	0.130000	|0.932000	1.000000	41.000000	
|131.000000	0.912000	-0.030000	|31.100000	13.000000	3.100000	


C[0][0] += 431.00000 * 320.00000
C[0][0] += 912.00000 * 0.93200
C[0][0] += 0.03000 * 31.10000

C[1][0] += 11.00000 * 320.00000
C[1][0] += 0.12000 * 0.93200
C[1][0] += 0.13000 * 31.10000

C[2][0] += 131.00000 * 320.00000
C[2][0] += 0.91200 * 0.93200
C[2][0] += -0.03000 * 31.10000

C[0][1] += 431.00000 * 123.00000
C[0][1] += 912.00000 * 1.00000
C[0][1] += 0.03000 * 13.00000

C[1][1] += 11.00000 * 123.00000
C[1][1] += 0.12000 * 1.00000
C[1][1] += 0.13000 * 13.00000

C[2][1] += 131.00000 * 123.00000
C[2][1] += 0.91200 * 1.00000
C[2][1] += -0.03000 * 13.00000

C[0][2] += 431.00000 * 1.00000
C[0][2] += 912.00000 * 41.00000
C[0][2] += 0.03000 * 3.10000

C[1][2] += 11.00000 * 1.00000
C[1][2] += 0.12000 * 41.00000
C[1][2] += 0.13000 * 3.10000

C[2][2] += 131.00000 * 1.00000
C[2][2] += 0.91200 * 41.00000
C[2][2] += -0.03000 * 3.1000




/*---------------------------------------------------------------------------*\
  =========                 |
  \\      /  F ield         | OpenFOAM: The Open Source CFD Toolbox
   \\    /   O peration     | Website:  https://openfoam.org
    \\  /    A nd           | Version:  dev
     \\/     M anipulation  |
\*---------------------------------------------------------------------------*/
Build  : dev-386f05b23aab
Exec   : foamPostProcess -solver incompressibleFluid -latestTime
Date   : Dec 21 2025
Time   : 17:05:45
Host   : "localhost"
PID    : 20967
I/O    : uncollated
Case   : /home/edgar/OpenFOAM-dev/tutorials/incompressibleFluid/EdgarFoil
nProcs : 1
sigFpe : Enabling floating point exception trapping (FOAM_SIGFPE).
fileModificationChecking : Monitoring run-time modified files using timeStampMaster (fileModificationSkew 10)
allowSystemOperations : Allowing user-supplied system call operations

// * * * * * * * * * * * * * * * * * * * * * * * * * * * * * * * * * * * * * //
Create time

Create mesh for time = 1500

forcesBase forces:
    Not including porosity effects
forces forces:
    Not including porosity effects
forcesBase forceCoeffs:
    Not including porosity effects
forces forceCoeffs:
    Not including porosity effects
forceCoeffs forceCoeffs:
    Not including porosity effects
Time = 1500s
Selecting solver incompressibleFluid
Selecting viscosity model constant
Selecting turbulence model type RAS
    Selecting RAS turbulence model SpalartAllmaras
No MRF models present

forces forces write:
    sum of forces:
        pressure : (-1.321 18.641 -1.8273e-18)
        viscous  : (0.1467 0.012719 -2.2262e-21)
        porous   : (0 0 0)
    sum of moments:
        pressure : (-0.46602 -0.033026 5.91)
        viscous  : (-0.00031797 0.0036674 -0.00098073)
        porous   : (0 0 0)

forceCoeffs forceCoeffs write:
    Cm    = 0.12885
    Cd    = -0.025606
    Cl    = 0.40675
    Cl(f) = 0.33222
    Cl(r) = 0.074524


End


  return sqrtl(
      powl(1.0L +
               ((-1.0L) * (t >= 0.0) + (1.0L) * (t < 0.0L)) * f3prime(T, a) *
                   sinl((T < a.p * a.c) * theta1(T, a) +
                        (T >= a.p * a.c) * theta2(T, a)) +
               ((-1.0L) * (t >= 0.0) + (1.0L) * (t < 0.0L)) * f3(T, a) *
                   cosl((T < a.p * a.c) * theta1(T, a) +
                        (T >= a.p * a.c) * theta2(T, a)) *
                   ((T < a.p * a.c) * theta1prime(T, a) +
                    (T >= a.p * a.c) * theta2prime(T, a)),
           2.0L) +
      powl((T < a.p * a.c) * f1prime(T, a) + (T >= a.p * a.c) * f2prime(T, a) +
               ((-1.0L) * (t >= 0.0L) + (1.0L) * (t < 0.0L)) * f3prime(T, a) *
                   cosl((T < a.p * a.c) * theta1(T, a) +
                        (T >= a.p * a.c) * theta2(T, a)) +
               ((-1.0L) * (t >= 0.0L) + (1.0L) * (t < 0.0L)) * f3(T, a) *
                   sinl((T < a.p * a.c) * theta1(T, a) +
                        (T >= a.p * a.c) * theta2(T, a)) *
                   ((T < a.p * a.c) * theta1prime(T, a) +
                    (T >= a.p * a.c) * theta2prime(T, a)),
           2.0L));
  return sqrtl(
      powl(1.0L +
               ((-1.0L) * (t >= 0.0) + (1.0L) * (t < 0.0L)) * f3prime(T, a) *
                   sinl((T < a.p * a.c) * theta1(T, a) +
                        (T >= a.p * a.c) * theta2(T, a)) +
               ((-1.0L) * (t >= 0.0) + (1.0L) * (t < 0.0L)) * f3(T, a) *
                   cosl((T < a.p * a.c) * theta1(T, a) +
                        (T >= a.p * a.c) * theta2(T, a)) *
                   ((T < a.p * a.c) * theta1prime(T, a) +
                    (T >= a.p * a.c) * theta2prime(T, a)),
           2.0L) +
      powl((T < a.p * a.c) * f1prime(T, a) + (T >= a.p * a.c) * f2prime(T, a) +
               ((-1.0L) * (t >= 0.0L) + (1.0L) * (t < 0.0L)) * f3prime(T, a) *
                   cosl((T < a.p * a.c) * theta1(T, a) +
                        (T >= a.p * a.c) * theta2(T, a)) +
               ((-1.0L) * (t >= 0.0L) + (1.0L) * (t < 0.0L)) * f3(T, a) *
                   sinl((T < a.p * a.c) * theta1(T, a) +
                        (T >= a.p * a.c) * theta2(T, a)) *
                   ((T < a.p * a.c) * theta1prime(T, a) +
                    (T >= a.p * a.c) * theta2prime(T, a)),
           2.0L));
